    20
 Generated by Multiwfn
C       0.18770104     -0.17209476      0.19522556
C      -0.54255196      1.00902624      0.37048256
C       0.21967304      2.17301324      0.22447156
C       1.57294204      2.18963124     -0.05107944
C       2.21154904      0.97812924     -0.21079344
C       1.53881004     -0.22008676     -0.07566844
H       2.10883004      3.12529424     -0.14152044
H       2.04784704     -1.16761976     -0.19238644
C      -1.97980096      1.02607424      0.77488356
H      -2.62303096      1.06169924     -0.10849744
H      -2.23879496      0.13380624      1.34116356
H      -2.20091596      1.89903824      1.38708956
N      -0.47873396     -1.47042276      0.29039856
O      -1.58148396     -1.57728876     -0.21538244
O       0.12538804     -2.36930576      0.84916156
N       3.63816904      0.96119424     -0.50699144
O       4.18658704     -0.12508676     -0.59229644
O       4.20000004      2.03491324     -0.64726344
O      -0.39500332      3.45723713      0.35804545
H      -0.36054942      3.91807873     -0.48340446
