    20
 Generated by Multiwfn
C       0.35416575     -0.31411200      0.17151586
C      -0.32656525      0.86285700     -0.16580314
C       0.41723975      2.01011200      0.13194186
C       1.68793775      2.01854700      0.68607986
C       2.30320375      0.80829700      0.96950286
C       1.61725275     -0.37064400      0.72227386
H       2.19552575      2.95822800      0.87011586
H       2.08143875     -1.32628700      0.93563586
C      -1.73378525      0.89378600     -0.66186914
H      -1.75168425      0.84198300     -1.76392314
H      -2.30755625      0.04573000     -0.27319414
H      -2.24359525      1.81702100     -0.36446414
N      -0.27097825     -1.60762900     -0.09203914
O      -0.87233225     -1.74832400     -1.13925914
O      -0.13497125     -2.48084900      0.74985986
N      -0.15235425      3.32585900     -0.14233214
O       0.01437075      4.19740300      0.69902986
O      -0.74738425      3.48377900     -1.19552514
O       3.54872075      0.71653000      1.48439686
H       4.00038875      1.56739700      1.40516486
