    30
 Generated by Multiwfn
O      -0.25760900     -1.67356600     -1.59873300
O       0.50843300      2.42585900     -0.16799100
C       0.31460500      1.13059800      0.35739900
C       1.36349700      0.14225500     -0.16078200
C      -1.05977900      0.66708400     -0.09439000
C      -1.30500100     -0.76928300      0.32180300
C      -0.18320900     -1.66837900     -0.20440800
O       1.04731500     -1.17656700      0.27534400
O      -2.57317100     -1.11130700     -0.26364000
N      -3.21437600     -2.18211600      0.30606800
O      -4.28127100     -2.40531900     -0.19000500
C       2.71995300      0.47940300      0.40092900
O      -2.67020600     -2.76651700      1.20024200
H       1.39175800      0.18762200     -1.25332600
H       2.97849800      1.51757200      0.19903600
H       2.76753500      0.26568200      1.46840600
H       0.33742100      1.14227100      1.45182600
N       4.94341100     -0.22704200      0.06675900
O       5.69906700     -0.95533500     -0.51866200
N      -2.59679500      2.50449500     -0.11763300
O      -2.29127000      2.66338900     -1.26376000
O      -3.35485800      3.15580100      0.54498800
H      -1.36433600     -0.84760200      1.40640900
H      -0.27132400     -2.67375100      0.20406500
O       5.20793800      0.59086600      0.90593600
H      -1.17335200      0.78112500     -1.17147400
H       1.05903500      2.93347700      0.44014500
H       0.26844900     -2.41232200     -1.93246200
O      -2.05654500      1.45524200      0.58556500
O       3.64470700     -0.38398500     -0.29957100
